@<TRIPOS>MOLECULE
MOL
    8     7     1     0     0
SMALL
gas


@<TRIPOS>ATOM
      1 Br1          1.0990    -0.1940     0.0510 br         1 MOL      -0.091904
      2 Br2          5.4190    -0.2160    -1.5970 br         1 MOL      -0.091904
      3 C1           3.0310     0.0030    -0.0840 c3         1 MOL       0.012859
      4 C2           3.4910    -0.4490    -1.4480 c3         1 MOL       0.012859
      5 H1           3.2510     1.0580     0.1020 h1         1 MOL       0.039523
      6 H2           3.4640    -0.5990     0.7210 h1         1 MOL       0.039523
      7 H3           3.2900    -1.5100    -1.6240 h1         1 MOL       0.039523
      8 H4           3.0420     0.1370    -2.2550 h1         1 MOL       0.039523
@<TRIPOS>BOND
     1     1     3 1   
     2     2     4 1   
     3     3     4 1   
     4     3     5 1   
     5     3     6 1   
     6     4     7 1   
     7     4     8 1   
@<TRIPOS>SUBSTRUCTURE
     1 MOL         1 TEMP              0 ****  ****    0 ROOT
